Circuit: * Z:\Repos\jehtech\projects_not_in_own_repo\incubator\more_complicated_net.asc

Direct Newton iteration for .op point succeeded.

Date: Thu Jul 11 16:22:30 2024
Total elapsed time: 0.072 seconds.

tnom = 27
temp = 27
method = modified trap
totiter = 2091
traniter = 2088
tranpoints = 1045
accept = 1045
rejected = 0
matrix size = 4
fillins = 0
solver = Normal
Matrix Compiler1: 118 bytes object code size  0.1/0.1/[0.1]
Matrix Compiler2: 242 bytes object code size  0.1/0.1/[0.1]

