Circuit: * Z:\Repos\jehtech\projects_not_in_own_repo\incubator\simple_circult_netlist.asc

Direct Newton iteration for .op point succeeded.

Date: Tue Jul 09 21:06:42 2024
Total elapsed time: 0.042 seconds.

tnom = 27
temp = 27
method = modified trap
totiter = 2091
traniter = 2088
tranpoints = 1045
accept = 1045
rejected = 0
matrix size = 2
fillins = 0
solver = Normal
Matrix Compiler1: 36 bytes object code size  0.1/0.1/[0.0]
Matrix Compiler2: off  [0.1]/0.1/0.1

