Circuit: * C:\Users\JamesHume\Documents\wsl\jehtech\src\images\jeh-tech\Draft4.asc

Warning: Multiple definitions of model "2scr375p" Type: BJT
Warning: Multiple definitions of model "bc857b" Type: BJT
Warning: Multiple definitions of model "bc847c" Type: BJT
Warning: Multiple definitions of model "bc847b" Type: BJT
Direct Newton iteration for .op point succeeded.

Date: Mon Jun 16 14:37:15 2025
Total elapsed time: 0.240 seconds.

tnom = 27
temp = 27
method = modified trap
totiter = 2108
traniter = 2088
tranpoints = 1045
accept = 1045
rejected = 0
matrix size = 8
fillins = 0
solver = Normal
Avg thread counts: 4.5/8.1/8.1/4.5
Matrix Compiler1: 380 bytes object code size  0.5/0.9/[0.3]
Matrix Compiler2: 628 bytes object code size  0.8/0.4/[0.2]

