Circuit: * C:\Users\JamesHume\Documents\wsl\jehtech\src\images\jeh-tech\Draft1.asc

.OP point found by inspection.

Date: Fri Feb 16 16:36:37 2024
Total elapsed time: 0.256 seconds.

tnom = 27
temp = 27
method = modified trap
totiter = 87696
traniter = 87696
tranpoints = 43849
accept = 31521
rejected = 12328
matrix size = 3
fillins = 0
solver = Normal
Avg thread counts: 1.1/1.2/1.2/1.1
Matrix Compiler1: off  [0.0]/0.0/0.1
Matrix Compiler2:      15 opcodes  0.1/[0.1]/0.1

