Circuit: * C:\Users\JamesHume\Documents\wsl\jehtech\src\images\jeh-tech\Draft3.asc

Direct Newton iteration for .op point succeeded.

Date: Fri Jul 19 13:15:03 2024
Total elapsed time: 3.022 seconds.

tnom = 27
temp = 27
method = modified trap
totiter = 2970160
traniter = 2970153
tranpoints = 1268150
accept = 965435
rejected = 302715
matrix size = 9
fillins = 3
solver = Normal
Avg thread counts: 1.0/1.0/1.0/1.0
Matrix Compiler1: 628 bytes object code size  0.2/0.1/[0.1]
Matrix Compiler2: off  [0.1]/0.1/0.2

