Circuit: * Z:\home\james\Repos\jehtech\src\images\jeh-tech\Draft2.asc

Direct Newton iteration for .op point succeeded.

Date: Thu Apr 18 20:23:22 2024
Total elapsed time: 0.037 seconds.

tnom = 27
temp = 27
method = modified trap
totiter = 2108
traniter = 2105
tranpoints = 1049
accept = 1048
rejected = 1
matrix size = 4
fillins = 0
solver = Normal
Matrix Compiler1: 136 bytes object code size  0.1/0.1/[0.1]
Matrix Compiler2: 230 bytes object code size  0.1/0.1/[0.1]

