Circuit: * C:\users\james\Documents\repos\jehtech\src\images\jeh-tech\Draft2.asc

WARNING: Node N002 is floating.

Direct Newton iteration for .op point succeeded.

Date: Thu Oct 19 12:05:42 2023
Total elapsed time: 0.102 seconds.

tnom = 27
temp = 27
method = modified trap
totiter = 3084
traniter = 3076
tranpoints = 1294
accept = 1242
rejected = 52
matrix size = 17
fillins = 0
solver = Normal
Avg thread counts: 1.4/2.0/2.0/1.4
Matrix Compiler1: 498 bytes object code size  0.2/0.2/[0.1]
Matrix Compiler2: 909 bytes object code size  0.2/0.2/[0.2]

