Circuit: * C:\users\james\Documents\repos\jehtech\src\images\jeh-tech\Draft2.asc

Warning: Multiple definitions of model "2scr375p" Type: BJT
Warning: Multiple definitions of model "bc857b" Type: BJT
Warning: Multiple definitions of model "bc847c" Type: BJT
Warning: Multiple definitions of model "bc847b" Type: BJT
Direct Newton iteration for .op point succeeded.

Date: Mon Oct 23 10:00:13 2023
Total elapsed time: 0.108 seconds.

tnom = 27
temp = 27
method = modified trap
totiter = 2485
traniter = 2459
tranpoints = 1160
accept = 1132
rejected = 28
matrix size = 10
fillins = 0
solver = Normal
Avg thread counts: 1.5/2.1/2.1/1.5
Matrix Compiler1: 390 bytes object code size  0.2/0.2/[0.2]
Matrix Compiler2: 692 bytes object code size  0.2/0.2/[0.2]

