Circuit: * C:\Users\JamesHume\Documents\wsl\jehtech\src\images\jeh-tech\electronics_pulse_into_cap.asc

WARNING: Specified period is not longer than the sum of Trise, Tfall, and Ton for v1.  Increasing period to 1.5
.OP point found by inspection.

Date: Mon Jan 29 16:35:53 2024
Total elapsed time: 0.079 seconds.

tnom = 27
temp = 27
method = modified trap
totiter = 2634
traniter = 2634
tranpoints = 1318
accept = 1293
rejected = 25
matrix size = 3
fillins = 0
solver = Normal
Avg thread counts: 3.8/6.6/6.6/3.8
Matrix Compiler1: 68 bytes object code size  0.1/0.1/[0.1]
Matrix Compiler2: off  [0.0]/0.1/0.1

