Circuit: * Z:\home\james\Repos\jehtech\src\images\jeh-tech\electronics_pulse_into_cap.asc

WARNING: Specified period is not longer than the sum of Trise, Tfall, and Ton for v1.  Increasing period to 1.5
.OP point found by inspection.

Date: Thu Apr 18 20:00:00 2024
Total elapsed time: 0.060 seconds.

tnom = 27
temp = 27
method = modified trap
totiter = 2634
traniter = 2634
tranpoints = 1318
accept = 1293
rejected = 25
matrix size = 3
fillins = 0
solver = Normal
Matrix Compiler1: 50 bytes object code size  0.1/0.1/[0.1]
Matrix Compiler2: 175 bytes object code size  0.1/0.1/[0.1]

