Circuit: * C:\Users\JamesHume\Documents\wsl\jehtech\src\images\jeh-tech\electronics_lc_tank_2.asc

WARNING: Specified period is not longer than the sum of Trise, Tfall, and Ton for v1.  Increasing period to 0.000100002
.OP point found by inspection.

Date: Sat Feb 17 15:25:26 2024
Total elapsed time: 0.198 seconds.

tnom = 27
temp = 27
method = modified trap
totiter = 18212
traniter = 18212
tranpoints = 9107
accept = 6611
rejected = 2496
matrix size = 3
fillins = 0
solver = Normal
Avg thread counts: 1.4/1.8/1.8/1.4
Matrix Compiler1: off  [0.1]/0.1/0.2
Matrix Compiler2: 175 bytes object code size  0.1/0.1/[0.1]

