Circuit: * C:\Users\JamesHume\Documents\wsl\jehtech\src\images\jeh-tech\electronics_pulse_into_indictor.asc

.OP point found by inspection.

Date: Thu Feb 12 10:53:55 2026
Total elapsed time: 0.108 seconds.

tnom = 27
temp = 27
method = modified trap
totiter = 2274
traniter = 2274
tranpoints = 1138
accept = 1120
rejected = 18
matrix size = 3
fillins = 0
solver = Normal
Avg thread counts: 4.2/7.5/7.5/4.2
Matrix Compiler1:       3 opcodes  0.1/[0.1]/0.2
Matrix Compiler2: 175 bytes object code size  0.1/0.1/[0.1]

