Circuit: * C:\users\james\Documents\repos\jehtech\src\images\jeh-tech\electronics_555_astable_1.asc

Direct Newton iteration for .op point succeeded.

Date: Thu Oct 19 16:02:32 2023
Total elapsed time: 0.113 seconds.

tnom = 27
temp = 27
method = modified trap
totiter = 4816
traniter = 4808
tranpoints = 1570
accept = 1446
rejected = 124
matrix size = 14
fillins = 0
solver = Normal
Avg thread counts: 1.3/1.8/1.8/1.3
Matrix Compiler1: 402 bytes object code size  0.2/0.2/[0.1]
Matrix Compiler2: 776 bytes object code size  0.2/0.2/[0.2]

