Circuit: * C:\users\james\Documents\repos\jehtech\src\images\jeh-tech\electronics_555_astable_1.asc

Direct Newton iteration for .op point succeeded.

Date: Mon Oct 23 09:00:47 2023
Total elapsed time: 0.094 seconds.

tnom = 27
temp = 27
method = modified trap
totiter = 2177
traniter = 2169
tranpoints = 1059
accept = 1058
rejected = 1
matrix size = 14
fillins = 0
solver = Normal
Avg thread counts: 1.6/2.2/2.2/1.6
Matrix Compiler1: 402 bytes object code size  0.2/0.2/[0.1]
Matrix Compiler2: 776 bytes object code size  0.2/0.2/[0.2]

