Circuit: * C:\Users\JamesHume\Documents\wsl\jehtech\src\images\jeh-tech\electronics_common_emitter_amplifier.asc

Warning: Multiple definitions of model "2scr375p" Type: BJT
Warning: Multiple definitions of model "bc857b" Type: BJT
Warning: Multiple definitions of model "bc847c" Type: BJT
Warning: Multiple definitions of model "bc847b" Type: BJT
WARNING: Node OUTPUT is floating.

WARNING: Less than two connections to node output.  This node is used by c3.
Direct Newton iteration for .op point succeeded.

Date: Sun Feb 11 15:19:06 2024
Total elapsed time: 0.266 seconds.

tnom = 27
temp = 27
method = modified trap
totiter = 15227
traniter = 15222
tranpoints = 5953
accept = 4226
rejected = 1727
matrix size = 11
fillins = 0
solver = Normal
Avg thread counts: 1.5/2.2/2.2/1.5
Matrix Compiler1: 628 bytes object code size  0.4/0.4/[0.3]
Matrix Compiler2: 835 bytes object code size  0.3/0.4/[0.2]

