Circuit: * C:\users\james\Documents\repos\jehtech\src\images\jeh-tech\electronics_555_monostable_1.asc

WARNING: Node N002 is floating.

Direct Newton iteration for .op point succeeded.

Date: Mon Oct 23 08:34:21 2023
Total elapsed time: 0.105 seconds.

tnom = 27
temp = 27
method = modified trap
totiter = 3493
traniter = 3485
tranpoints = 1440
accept = 1360
rejected = 80
matrix size = 17
fillins = 0
solver = Normal
Avg thread counts: 1.4/1.9/1.8/1.4
Matrix Compiler1: 498 bytes object code size  0.2/0.2/[0.2]
Matrix Compiler2: 909 bytes object code size  0.2/0.3/[0.2]

