Circuit: * C:\Users\JamesHume\Documents\wsl\jehtech\src\images\jeh-tech\electronics_freq_sweep_into_cap.asc

.OP point found by inspection.

Date: Mon Jan 29 22:34:04 2024
Total elapsed time: 0.079 seconds.

tnom = 27
temp = 27
method = trap
totiter = 0
traniter = 0
tranpoints = 0
accept = 0
rejected = 0
matrix size = 3
fillins = 0
solver = Normal
Avg thread counts: 20.0/0.0/0.0/16.5
Matrix Compiler1:       4 opcodes
Matrix Compiler2:      15 opcodes
